[{"sort": "1", "as_num": "AS5603", "register": "SIOL-NET Telekom Slovenije d.d., SI", "count": "8,192", "register_time": "19960419", "url": "http://as.chacuo.net/as5603"}, {"sort": "2", "as_num": "AS6764", "register": "PERFTECH-SLOVENIA-AS PERFTECHSI-AS, SI", "count": "8,192", "register_time": "19960913", "url": "http://as.chacuo.net/as6764"}, {"sort": "3", "as_num": "AS8591", "register": "A1SLOVENIJA http://www.A1.si/, SI", "count": "8,192", "register_time": "19971218", "url": "http://as.chacuo.net/as8591"}, {"sort": "4", "as_num": "AS12785", "register": "SI-ZVD, SI", "count": "8,192", "register_time": "20110928", "url": "http://as.chacuo.net/as12785"}, {"sort": "5", "as_num": "AS20892", "register": "ACTIVA-SI-AS, SI", "count": "1,024", "register_time": "20071213", "url": "http://as.chacuo.net/as20892"}, {"sort": "6", "as_num": "AS48894", "register": "OPTIMUS-AS, SI", "count": "1,024", "register_time": "20090225", "url": "http://as.chacuo.net/as48894"}, {"sort": "7", "as_num": "AS48011", "register": "DIGITURUNC, TR", "count": "512", "register_time": "20080929", "url": "http://as.chacuo.net/as48011"}, {"sort": "8", "as_num": "AS201522", "register": "UB330-NET, SI", "count": "512", "register_time": "20141003", "url": "http://as.chacuo.net/as201522"}, {"sort": "9", "as_num": "AS203618", "register": "UB330-NET2, SI", "count": "512", "register_time": "19700101", "url": "http://as.chacuo.net/as203618"}, {"sort": "10", "as_num": "AS198841", "register": "REPRO-SI-AS 78/330 Wattle Street, SI", "count": "256", "register_time": "20120530", "url": "http://as.chacuo.net/as198841"}, {"sort": "11", "as_num": "AS204177", "register": "CVS, SI", "count": "0", "register_time": "19700101", "url": "http://as.chacuo.net/as204177"}, {"sort": "12", "as_num": "AS2107", "register": "ARNES-NET Academic and Research Network of Slovenia, SI", "count": "0", "register_time": "19921106", "url": "http://as.chacuo.net/as2107"}, {"sort": "13", "as_num": "AS2610", "register": "SIOL-NET, SI", "count": "0", "register_time": "19931103", "url": "http://as.chacuo.net/as2610"}, {"sort": "14", "as_num": "AS3212", "register": "TELEMACH Broadband Access & Carrier Services, SI", "count": "0", "register_time": "20040624", "url": "http://as.chacuo.net/as3212"}, {"sort": "15", "as_num": "AS5435", "register": "VELCOM-AS Brnciceva ulica 31, SI", "count": "0", "register_time": "19951027", "url": "http://as.chacuo.net/as5435"}, {"sort": "16", "as_num": "AS8307", "register": "TS BANKART, SI", "count": "0", "register_time": "19970512", "url": "http://as.chacuo.net/as8307"}, {"sort": "17", "as_num": "AS8558", "register": "HTTPOOL-NET-AS, SI", "count": "0", "register_time": "20100512", "url": "http://as.chacuo.net/as8558"}, {"sort": "18", "as_num": "AS8727", "register": "ADACTA-AS, SI", "count": "0", "register_time": "20021018", "url": "http://as.chacuo.net/as8727"}, {"sort": "19", "as_num": "AS9001", "register": "A1-SI-AS, SI", "count": "0", "register_time": "20110330", "url": "http://as.chacuo.net/as9001"}, {"sort": "20", "as_num": "AS9119", "register": "SOFTNET-AS Internet Service Provider in Slovenia and South Europe region, SI", "count": "0", "register_time": "19981229", "url": "http://as.chacuo.net/as9119"}, {"sort": "21", "as_num": "AS12644", "register": "TELEMACH Ljubljana, Slovenia, SI", "count": "0", "register_time": "20000406", "url": "http://as.chacuo.net/as12644"}, {"sort": "22", "as_num": "AS12778", "register": "NETSI NETSI.NET AS, SI", "count": "0", "register_time": "19991105", "url": "http://as.chacuo.net/as12778"}, {"sort": "23", "as_num": "AS15393", "register": "MOJNET Motnica 7, SI", "count": "0", "register_time": "20000615", "url": "http://as.chacuo.net/as15393"}, {"sort": "24", "as_num": "AS15664", "register": "SI-BUSINESS, SI", "count": "0", "register_time": "20090730", "url": "http://as.chacuo.net/as15664"}, {"sort": "25", "as_num": "AS15767", "register": "ABANKA-AS Abanka d.d., SI", "count": "0", "register_time": "20001006", "url": "http://as.chacuo.net/as15767"}, {"sort": "26", "as_num": "AS15822", "register": "AGEN-AS Agencija RS za energijo AS, SI", "count": "0", "register_time": "20060725", "url": "http://as.chacuo.net/as15822"}, {"sort": "27", "as_num": "AS15889", "register": "SRC-SI-AS, SI", "count": "0", "register_time": "20081002", "url": "http://as.chacuo.net/as15889"}, {"sort": "28", "as_num": "AS15946", "register": "BANKA-INTESA-SANPAOLO-AS Banka Intesa Sanpaolo d.d., SI", "count": "0", "register_time": "20001108", "url": "http://as.chacuo.net/as15946"}, {"sort": "29", "as_num": "AS16016", "register": "EX-VOLJATEL-AS, SI", "count": "0", "register_time": "20001124", "url": "http://as.chacuo.net/as16016"}, {"sort": "30", "as_num": "AS16104", "register": "SKB-AS Ajdovscina 4, SI", "count": "0", "register_time": "20001221", "url": "http://as.chacuo.net/as16104"}, {"sort": "31", "as_num": "AS16184", "register": "LUKAKP-AS, SI", "count": "0", "register_time": "20011107", "url": "http://as.chacuo.net/as16184"}, {"sort": "32", "as_num": "AS20526", "register": "INTEREUROPA-AS, SI", "count": "0", "register_time": "20010323", "url": "http://as.chacuo.net/as20526"}, {"sort": "33", "as_num": "AS20691", "register": "GLS-SLO-AS, SI", "count": "0", "register_time": "20081210", "url": "http://as.chacuo.net/as20691"}, {"sort": "34", "as_num": "AS21283", "register": "A1SI-AS A1 Slovenija, SI", "count": "0", "register_time": "20011016", "url": "http://as.chacuo.net/as21283"}, {"sort": "35", "as_num": "AS21401", "register": "BORZEN-AS, SI", "count": "0", "register_time": "20011128", "url": "http://as.chacuo.net/as21401"}, {"sort": "36", "as_num": "AS21441", "register": "LJSE-AS, SI", "count": "0", "register_time": "20011211", "url": "http://as.chacuo.net/as21441"}, {"sort": "37", "as_num": "AS24629", "register": "NIL-AS, SI", "count": "0", "register_time": "20020124", "url": "http://as.chacuo.net/as24629"}, {"sort": "38", "as_num": "AS24728", "register": "SI-REDOX, SI", "count": "0", "register_time": "20100125", "url": "http://as.chacuo.net/as24728"}, {"sort": "39", "as_num": "AS24747", "register": "INLIFE-AS, SI", "count": "0", "register_time": "20020312", "url": "http://as.chacuo.net/as24747"}, {"sort": "40", "as_num": "AS24908", "register": "LEK-AS, SI", "count": "0", "register_time": "20020515", "url": "http://as.chacuo.net/as24908"}, {"sort": "41", "as_num": "AS25017", "register": "ASN-DUTB-MB, SI", "count": "0", "register_time": "20020625", "url": "http://as.chacuo.net/as25017"}, {"sort": "42", "as_num": "AS25020", "register": "ASN-DUTB Davcna ulica 1, SI", "count": "0", "register_time": "20020626", "url": "http://as.chacuo.net/as25020"}, {"sort": "43", "as_num": "AS25034", "register": "ASN-RKB, SI", "count": "0", "register_time": "20020704", "url": "http://as.chacuo.net/as25034"}, {"sort": "44", "as_num": "AS25059", "register": "NLB-SI-AS, SI", "count": "0", "register_time": "20020715", "url": "http://as.chacuo.net/as25059"}, {"sort": "45", "as_num": "AS25066", "register": "NKBM-AS, SI", "count": "0", "register_time": "20020717", "url": "http://as.chacuo.net/as25066"}, {"sort": "46", "as_num": "AS25149", "register": "DROGA-AS Industrijska cesta 21, SI", "count": "0", "register_time": "20020808", "url": "http://as.chacuo.net/as25149"}, {"sort": "47", "as_num": "AS25173", "register": "ISKRATR-AS, SI", "count": "0", "register_time": "20020822", "url": "http://as.chacuo.net/as25173"}, {"sort": "48", "as_num": "AS25303", "register": "KDD, SI", "count": "0", "register_time": "20020926", "url": "http://as.chacuo.net/as25303"}, {"sort": "49", "as_num": "AS25365", "register": "TOMSOFT-AS IV Vrbik 6, HR", "count": "0", "register_time": "20021021", "url": "http://as.chacuo.net/as25365"}, {"sort": "50", "as_num": "AS25467", "register": "AKTON-AS Akton Autonomous System, SI", "count": "0", "register_time": "20021203", "url": "http://as.chacuo.net/as25467"}, {"sort": "51", "as_num": "AS25499", "register": "ASN-TRIGLAV, SI", "count": "0", "register_time": "20021211", "url": "http://as.chacuo.net/as25499"}, {"sort": "52", "as_num": "AS25541", "register": "MERKUR-SI-AS, SI", "count": "0", "register_time": "20021230", "url": "http://as.chacuo.net/as25541"}, {"sort": "53", "as_num": "AS28682", "register": "ASN-POSTA Uplinks, SI", "count": "0", "register_time": "20030129", "url": "http://as.chacuo.net/as28682"}, {"sort": "54", "as_num": "AS28850", "register": "ZZZS-SI-ASN Health Insurance Institute of Slovenia, SI", "count": "0", "register_time": "20030314", "url": "http://as.chacuo.net/as28850"}, {"sort": "55", "as_num": "AS28933", "register": "LTFE-AS, SI", "count": "0", "register_time": "20030410", "url": "http://as.chacuo.net/as28933"}, {"sort": "56", "as_num": "AS28951", "register": "ATNET-AS, SI", "count": "0", "register_time": "20030416", "url": "http://as.chacuo.net/as28951"}, {"sort": "57", "as_num": "AS28984", "register": "ZHKS-AS, SI", "count": "0", "register_time": "20030429", "url": "http://as.chacuo.net/as28984"}, {"sort": "58", "as_num": "AS28985", "register": "HSE-AS, SI", "count": "0", "register_time": "20030429", "url": "http://as.chacuo.net/as28985"}, {"sort": "59", "as_num": "AS29015", "register": "KRKA-ASN Leading pharmaceutical companies in central and eastern Europe, SI", "count": "0", "register_time": "20030512", "url": "http://as.chacuo.net/as29015"}, {"sort": "60", "as_num": "AS29051", "register": "ELES-AS, SI", "count": "0", "register_time": "20030520", "url": "http://as.chacuo.net/as29051"}, {"sort": "61", "as_num": "AS29089", "register": "PBS-AS http://www.pbs.si/, SI", "count": "0", "register_time": "20030530", "url": "http://as.chacuo.net/as29089"}, {"sort": "62", "as_num": "AS29121", "register": "CANKARJEVDOM-AS Presernova 10, SI", "count": "0", "register_time": "20030610", "url": "http://as.chacuo.net/as29121"}, {"sort": "63", "as_num": "AS29273", "register": "IUS-SW-ASN, SI", "count": "0", "register_time": "20030718", "url": "http://as.chacuo.net/as29273"}, {"sort": "64", "as_num": "AS29276", "register": "MOBITEL-GPRS, SI", "count": "0", "register_time": "20030718", "url": "http://as.chacuo.net/as29276"}, {"sort": "65", "as_num": "AS29374", "register": "ADRIATIC-AS Ljubljanska cesta 3a, SI", "count": "0", "register_time": "20030821", "url": "http://as.chacuo.net/as29374"}, {"sort": "66", "as_num": "AS30841", "register": "IKB-AS, SI", "count": "0", "register_time": "20031218", "url": "http://as.chacuo.net/as30841"}, {"sort": "67", "as_num": "AS31060", "register": "DOBA-AS, SI", "count": "0", "register_time": "20040217", "url": "http://as.chacuo.net/as31060"}, {"sort": "68", "as_num": "AS31095", "register": "SPARIGT-AS Letaliska 26, AT", "count": "0", "register_time": "20040225", "url": "http://as.chacuo.net/as31095"}, {"sort": "69", "as_num": "AS31134", "register": "AMZS-AS, SI", "count": "0", "register_time": "20040305", "url": "http://as.chacuo.net/as31134"}, {"sort": "70", "as_num": "AS31545", "register": "SLOVENICA-AS Celovska cesta 206, SI", "count": "0", "register_time": "20040609", "url": "http://as.chacuo.net/as31545"}, {"sort": "71", "as_num": "AS31687", "register": "PPTUJ-AS, SI", "count": "0", "register_time": "20081229", "url": "http://as.chacuo.net/as31687"}, {"sort": "72", "as_num": "AS31711", "register": "HYPO-SI-AS, SI", "count": "0", "register_time": "20040722", "url": "http://as.chacuo.net/as31711"}, {"sort": "73", "as_num": "AS33850", "register": "UNIORSI-AS, SI", "count": "0", "register_time": "20040817", "url": "http://as.chacuo.net/as33850"}, {"sort": "74", "as_num": "AS33918", "register": "PRIMORSKE-NOVICE-AS Ulica OF 12, SI", "count": "0", "register_time": "20040906", "url": "http://as.chacuo.net/as33918"}, {"sort": "75", "as_num": "AS33929", "register": ",", "count": "0", "register_time": "20040908", "url": "http://as.chacuo.net/as33929"}, {"sort": "76", "as_num": "AS34024", "register": "INFOHIT-AS, SI", "count": "0", "register_time": "20041001", "url": "http://as.chacuo.net/as34024"}, {"sort": "77", "as_num": "AS34367", "register": "BSI-AS, SI", "count": "0", "register_time": "20041227", "url": "http://as.chacuo.net/as34367"}, {"sort": "78", "as_num": "AS34488", "register": "BANK-AUSTRIA-LJUBLJANA-AS Smartinska 140, SI", "count": "0", "register_time": "20050131", "url": "http://as.chacuo.net/as34488"}, {"sort": "79", "as_num": "AS34717", "register": "SID-AS Slovene Export Corporatio, Inc., SI", "count": "0", "register_time": "20050323", "url": "http://as.chacuo.net/as34717"}, {"sort": "80", "as_num": "AS34779", "register": "T-2-AS AS set propagated by T-2, d.o.o., SI", "count": "0", "register_time": "20050405", "url": "http://as.chacuo.net/as34779"}, {"sort": "81", "as_num": "AS35023", "register": "GBKR-AS, SI", "count": "0", "register_time": "20050519", "url": "http://as.chacuo.net/as35023"}, {"sort": "82", "as_num": "AS35099", "register": "PORSCHE-SLOVENIA-AS, SI", "count": "0", "register_time": "20050602", "url": "http://as.chacuo.net/as35099"}, {"sort": "83", "as_num": "AS35186", "register": "DONET-SI-AS, SI", "count": "0", "register_time": "20050620", "url": "http://as.chacuo.net/as35186"}, {"sort": "84", "as_num": "AS35343", "register": "KDGROUP-AS Slovenia, SI", "count": "0", "register_time": "20050720", "url": "http://as.chacuo.net/as35343"}, {"sort": "85", "as_num": "AS35471", "register": "SGN, SI", "count": "0", "register_time": "20070105", "url": "http://as.chacuo.net/as35471"}, {"sort": "86", "as_num": "AS35561", "register": "VIATOR-VEKTOR-AS Slovenia, SI", "count": "0", "register_time": "20050905", "url": "http://as.chacuo.net/as35561"}, {"sort": "87", "as_num": "AS39187", "register": "TRINET-AS Leskoskova cesta 12, SI", "count": "0", "register_time": "20080707", "url": "http://as.chacuo.net/as39187"}, {"sort": "88", "as_num": "AS39320", "register": "ACTUAL-IT-AS Ferrarska 14, SI", "count": "0", "register_time": "20060131", "url": "http://as.chacuo.net/as39320"}, {"sort": "89", "as_num": "AS39387", "register": "DELO-AS, SI", "count": "0", "register_time": "20060213", "url": "http://as.chacuo.net/as39387"}, {"sort": "90", "as_num": "AS39497", "register": "LAMA-NET-AS, SI", "count": "0", "register_time": "20090126", "url": "http://as.chacuo.net/as39497"}, {"sort": "91", "as_num": "AS39727", "register": "ZZI-AS ZZI's AS Number, SI", "count": "0", "register_time": "20080220", "url": "http://as.chacuo.net/as39727"}, {"sort": "92", "as_num": "AS39765", "register": "WOUTER0100, NL", "count": "0", "register_time": "20060421", "url": "http://as.chacuo.net/as39765"}, {"sort": "93", "as_num": "AS39872", "register": "SODO-AS, SI", "count": "0", "register_time": "20060508", "url": "http://as.chacuo.net/as39872"}, {"sort": "94", "as_num": "AS41104", "register": "PODRAVKA-AS Cesta v Gorice 40, SI", "count": "0", "register_time": "20060615", "url": "http://as.chacuo.net/as41104"}, {"sort": "95", "as_num": "AS41182", "register": "MKNJIGA-AS, SI", "count": "0", "register_time": "20060626", "url": "http://as.chacuo.net/as41182"}, {"sort": "96", "as_num": "AS41427", "register": "MARC-NET_AS, SI", "count": "0", "register_time": "20060818", "url": "http://as.chacuo.net/as41427"}, {"sort": "97", "as_num": "AS41505", "register": "DELAVSKAHRANILNICA-, SI", "count": "0", "register_time": "20090813", "url": "http://as.chacuo.net/as41505"}, {"sort": "98", "as_num": "AS41543", "register": "SALOMON, SI", "count": "0", "register_time": "20060911", "url": "http://as.chacuo.net/as41543"}, {"sort": "99", "as_num": "AS41582", "register": "LJU-AIRPORT-AS, SI", "count": "0", "register_time": "20060918", "url": "http://as.chacuo.net/as41582"}, {"sort": "100", "as_num": "AS41630", "register": "HELIOS-AS, SI", "count": "0", "register_time": "20060926", "url": "http://as.chacuo.net/as41630"}, {"sort": "101", "as_num": "AS41640", "register": "HALCOM-AS, SI", "count": "0", "register_time": "20060927", "url": "http://as.chacuo.net/as41640"}, {"sort": "102", "as_num": "AS41716", "register": "MZZ-AS, SI", "count": "0", "register_time": "20061013", "url": "http://as.chacuo.net/as41716"}, {"sort": "103", "as_num": "AS41828", "register": "TELEMACH-HOSTING Telemach Hosting subnet # Tusmobil - AS-VOLJATEL, SI", "count": "0", "register_time": "20061031", "url": "http://as.chacuo.net/as41828"}, {"sort": "104", "as_num": "AS41916", "register": "MERCATOR-SI-AS, SI", "count": "0", "register_time": "20061115", "url": "http://as.chacuo.net/as41916"}, {"sort": "105", "as_num": "AS41970", "register": "ZPIZ-SI-AS, SI", "count": "0", "register_time": "20061124", "url": "http://as.chacuo.net/as41970"}, {"sort": "106", "as_num": "AS42273", "register": "SAVA-SI-AS, SI", "count": "0", "register_time": "20070125", "url": "http://as.chacuo.net/as42273"}, {"sort": "107", "as_num": "AS42613", "register": "TURNSEK-AS, SI", "count": "0", "register_time": "20070322", "url": "http://as.chacuo.net/as42613"}, {"sort": "108", "as_num": "AS42681", "register": "TS INPRO, SI", "count": "0", "register_time": "20070402", "url": "http://as.chacuo.net/as42681"}, {"sort": "109", "as_num": "AS42700", "register": "REALIS-AS Slovenia, SI", "count": "0", "register_time": "20070403", "url": "http://as.chacuo.net/as42700"}, {"sort": "110", "as_num": "AS42757", "register": "SPARKASSE-SI-AS, SI", "count": "0", "register_time": "20070412", "url": "http://as.chacuo.net/as42757"}, {"sort": "111", "as_num": "AS42791", "register": "LOTERIJA-SI Gerbiceva ulica 99 1000 Ljubljana , SI", "count": "0", "register_time": "20090817", "url": "http://as.chacuo.net/as42791"}, {"sort": "112", "as_num": "AS42948", "register": "SPORTNA-LOT-SI-AS, SI", "count": "0", "register_time": "20070514", "url": "http://as.chacuo.net/as42948"}, {"sort": "113", "as_num": "AS43034", "register": "CIMOS-AS Cesta marezganskega upora 2, SI", "count": "0", "register_time": "20070525", "url": "http://as.chacuo.net/as43034"}, {"sort": "114", "as_num": "AS43061", "register": "SI-STELKOM, SI", "count": "0", "register_time": "20070531", "url": "http://as.chacuo.net/as43061"}, {"sort": "115", "as_num": "AS43128", "register": "DHH-AS, SI", "count": "0", "register_time": "20070612", "url": "http://as.chacuo.net/as43128"}, {"sort": "116", "as_num": "AS43164", "register": "MIKROCOP-AS, SI", "count": "0", "register_time": "20070615", "url": "http://as.chacuo.net/as43164"}, {"sort": "117", "as_num": "AS43351", "register": "GORENJE-SI-AS, SI", "count": "0", "register_time": "20070718", "url": "http://as.chacuo.net/as43351"}, {"sort": "118", "as_num": "AS43427", "register": "MEDIS, SI", "count": "0", "register_time": "20070730", "url": "http://as.chacuo.net/as43427"}, {"sort": "119", "as_num": "AS43430", "register": "TRIGLAV-DZU-AS Slovenska c. 54, SI", "count": "0", "register_time": "20070730", "url": "http://as.chacuo.net/as43430"}, {"sort": "120", "as_num": "AS43462", "register": "SMARTCOM-AS, SI", "count": "0", "register_time": "20070803", "url": "http://as.chacuo.net/as43462"}, {"sort": "121", "as_num": "AS43663", "register": "MAKSIM-AS, SI", "count": "0", "register_time": "20070910", "url": "http://as.chacuo.net/as43663"}, {"sort": "122", "as_num": "AS43750", "register": "AVTENTA-SI_AS, SI", "count": "0", "register_time": "20070921", "url": "http://as.chacuo.net/as43750"}, {"sort": "123", "as_num": "AS43854", "register": "STUDIOMODERNA-AS Podvine 36, SI", "count": "0", "register_time": "20071010", "url": "http://as.chacuo.net/as43854"}, {"sort": "124", "as_num": "AS44073", "register": "ZDLJ-NET-AS, SI", "count": "0", "register_time": "20071113", "url": "http://as.chacuo.net/as44073"}, {"sort": "125", "as_num": "AS44085", "register": "DARS-AS, SI", "count": "0", "register_time": "20071115", "url": "http://as.chacuo.net/as44085"}, {"sort": "126", "as_num": "AS44455", "register": "ADRIA-AS Zg. Brnik 130H, SI", "count": "0", "register_time": "20080123", "url": "http://as.chacuo.net/as44455"}, {"sort": "127", "as_num": "AS44463", "register": "DINERS-CLUB-SLO-AS Dunajska 129, SI", "count": "0", "register_time": "20080123", "url": "http://as.chacuo.net/as44463"}, {"sort": "128", "as_num": "AS44524", "register": "ADK-SI-AS, SI", "count": "0", "register_time": "20080131", "url": "http://as.chacuo.net/as44524"}, {"sort": "129", "as_num": "AS44549", "register": "MEGA-M-AS AS set propagated by MEGA M d.o.o., SI", "count": "0", "register_time": "20080205", "url": "http://as.chacuo.net/as44549"}, {"sort": "130", "as_num": "AS44615", "register": "PROPLUS-SI-AS, SI", "count": "0", "register_time": "20080213", "url": "http://as.chacuo.net/as44615"}, {"sort": "131", "as_num": "AS44632", "register": "S-AND-T-SLOVENIA-AS, SI", "count": "0", "register_time": "20080214", "url": "http://as.chacuo.net/as44632"}, {"sort": "132", "as_num": "AS44647", "register": "ARIO, SI", "count": "0", "register_time": "20080218", "url": "http://as.chacuo.net/as44647"}, {"sort": "133", "as_num": "AS44667", "register": "FMC, SI", "count": "0", "register_time": "20080221", "url": "http://as.chacuo.net/as44667"}, {"sort": "134", "as_num": "AS44730", "register": "VZAJEMNA-SI-AS, SI", "count": "0", "register_time": "20090923", "url": "http://as.chacuo.net/as44730"}, {"sort": "135", "as_num": "AS44823", "register": "ENGROTUS, SI", "count": "0", "register_time": "20080317", "url": "http://as.chacuo.net/as44823"}, {"sort": "136", "as_num": "AS44968", "register": "IPROM-AS, SI", "count": "0", "register_time": "20080411", "url": "http://as.chacuo.net/as44968"}, {"sort": "137", "as_num": "AS44993", "register": "MOBIK-AS, SI", "count": "0", "register_time": "20080415", "url": "http://as.chacuo.net/as44993"}, {"sort": "138", "as_num": "AS45002", "register": "VOKA-AS, SI", "count": "0", "register_time": "20080417", "url": "http://as.chacuo.net/as45002"}, {"sort": "139", "as_num": "AS47336", "register": "SENG-AS, SI", "count": "0", "register_time": "20080604", "url": "http://as.chacuo.net/as47336"}, {"sort": "140", "as_num": "AS47360", "register": "FINANCE-ON-NET, SI", "count": "0", "register_time": "20080606", "url": "http://as.chacuo.net/as47360"}, {"sort": "141", "as_num": "AS47481", "register": "AS-LHD, RU", "count": "0", "register_time": "20080625", "url": "http://as.chacuo.net/as47481"}, {"sort": "142", "as_num": "AS47676", "register": "GHU-AS, SI", "count": "0", "register_time": "20080731", "url": "http://as.chacuo.net/as47676"}, {"sort": "143", "as_num": "AS47903", "register": "JUB-H-AS, SI", "count": "0", "register_time": "20080911", "url": "http://as.chacuo.net/as47903"}, {"sort": "144", "as_num": "AS47904", "register": "SI-ARCTUR, SI", "count": "0", "register_time": "20100504", "url": "http://as.chacuo.net/as47904"}, {"sort": "145", "as_num": "AS47917", "register": "RTVSLO-ASN, SI", "count": "0", "register_time": "20080916", "url": "http://as.chacuo.net/as47917"}, {"sort": "146", "as_num": "AS47959", "register": "TELINEA, SI", "count": "0", "register_time": "20080922", "url": "http://as.chacuo.net/as47959"}, {"sort": "147", "as_num": "AS47993", "register": "BANKART-SI-AS, SI", "count": "0", "register_time": "20080925", "url": "http://as.chacuo.net/as47993"}, {"sort": "148", "as_num": "AS48016", "register": "NOVATEL-AS, SI", "count": "0", "register_time": "20080930", "url": "http://as.chacuo.net/as48016"}, {"sort": "149", "as_num": "AS48059", "register": "MERCATOR-BA-AS Lozionicka 16, SI", "count": "0", "register_time": "20081003", "url": "http://as.chacuo.net/as48059"}, {"sort": "150", "as_num": "AS48222", "register": "TRIGLAVZADRAVSTVENA-, SI", "count": "0", "register_time": "20081027", "url": "http://as.chacuo.net/as48222"}, {"sort": "151", "as_num": "AS48388", "register": "SB-IZOLA-AS, SI", "count": "0", "register_time": "20081120", "url": "http://as.chacuo.net/as48388"}, {"sort": "152", "as_num": "AS48398", "register": "DINERS-CLUB-IT-AS Tomaziceva 4a, SI", "count": "0", "register_time": "20081121", "url": "http://as.chacuo.net/as48398"}, {"sort": "153", "as_num": "AS48419", "register": "SI-SALUS, SI", "count": "0", "register_time": "20081125", "url": "http://as.chacuo.net/as48419"}, {"sort": "154", "as_num": "AS48609", "register": "KPMG-SI-AS, SI", "count": "0", "register_time": "20081217", "url": "http://as.chacuo.net/as48609"}, {"sort": "155", "as_num": "AS48653", "register": "SLO-ZELEZNICE, SI", "count": "0", "register_time": "20081223", "url": "http://as.chacuo.net/as48653"}, {"sort": "156", "as_num": "AS48772", "register": "SI-GLOBUS-MARINE-INTERNATIONAL, SI", "count": "0", "register_time": "20110404", "url": "http://as.chacuo.net/as48772"}, {"sort": "157", "as_num": "AS48774", "register": "GEN-ENERGIJA-SI-AS, SI", "count": "0", "register_time": "20090205", "url": "http://as.chacuo.net/as48774"}, {"sort": "158", "as_num": "AS49015", "register": "SAVSKE-ELEKTRARNE-AS, SI", "count": "0", "register_time": "20090324", "url": "http://as.chacuo.net/as49015"}, {"sort": "159", "as_num": "AS49402", "register": "COMTRADE-AS, SI", "count": "0", "register_time": "20090603", "url": "http://as.chacuo.net/as49402"}, {"sort": "160", "as_num": "AS49407", "register": "PHARMASWISS, SI", "count": "0", "register_time": "20090603", "url": "http://as.chacuo.net/as49407"}, {"sort": "161", "as_num": "AS49482", "register": "MERCATOR-B-EOOD-AS Bogatiza 36, SI", "count": "0", "register_time": "20090617", "url": "http://as.chacuo.net/as49482"}, {"sort": "162", "as_num": "AS49590", "register": "SI-TRENDNET, SI", "count": "0", "register_time": "20090709", "url": "http://as.chacuo.net/as49590"}, {"sort": "163", "as_num": "AS49593", "register": "ALPINA, SI", "count": "0", "register_time": "20090710", "url": "http://as.chacuo.net/as49593"}, {"sort": "164", "as_num": "AS49618", "register": "SI-ERA, SI", "count": "0", "register_time": "20090714", "url": "http://as.chacuo.net/as49618"}, {"sort": "165", "as_num": "AS49636", "register": "LUZ, SI", "count": "0", "register_time": "20090717", "url": "http://as.chacuo.net/as49636"}, {"sort": "166", "as_num": "AS49725", "register": "NAKOM, SI", "count": "0", "register_time": "20090831", "url": "http://as.chacuo.net/as49725"}, {"sort": "167", "as_num": "AS49754", "register": "SFERA-IT-AS, SI", "count": "0", "register_time": "20090903", "url": "http://as.chacuo.net/as49754"}, {"sort": "168", "as_num": "AS49853", "register": "SI-CETRTAPOT, SI", "count": "0", "register_time": "20090929", "url": "http://as.chacuo.net/as49853"}, {"sort": "169", "as_num": "AS49896", "register": "SI-JAPET, SI", "count": "0", "register_time": "20091005", "url": "http://as.chacuo.net/as49896"}, {"sort": "170", "as_num": "AS49927", "register": "MIKROGRAFIJA, SI", "count": "0", "register_time": "20091014", "url": "http://as.chacuo.net/as49927"}, {"sort": "171", "as_num": "AS50093", "register": "EPILOG-AS, SI", "count": "0", "register_time": "20091116", "url": "http://as.chacuo.net/as50093"}, {"sort": "172", "as_num": "AS50195", "register": "UM, SI", "count": "0", "register_time": "20091130", "url": "http://as.chacuo.net/as50195"}, {"sort": "173", "as_num": "AS50344", "register": "SI-CDE, SI", "count": "0", "register_time": "20091222", "url": "http://as.chacuo.net/as50344"}, {"sort": "174", "as_num": "AS50391", "register": "SI-LINIT, SI", "count": "0", "register_time": "20100104", "url": "http://as.chacuo.net/as50391"}, {"sort": "175", "as_num": "AS50592", "register": "SI-LEKARNE-LJUBLJANA, SI", "count": "0", "register_time": "20100216", "url": "http://as.chacuo.net/as50592"}, {"sort": "176", "as_num": "AS50634", "register": "PPG-NET, SI", "count": "0", "register_time": "20100224", "url": "http://as.chacuo.net/as50634"}, {"sort": "177", "as_num": "AS50815", "register": "BTC-AS, SI", "count": "0", "register_time": "20100329", "url": "http://as.chacuo.net/as50815"}, {"sort": "178", "as_num": "AS51143", "register": "INFORMATIKA, SI", "count": "0", "register_time": "20100608", "url": "http://as.chacuo.net/as51143"}, {"sort": "179", "as_num": "AS51295", "register": "DEM-SI-AS, SI", "count": "0", "register_time": "20100715", "url": "http://as.chacuo.net/as51295"}, {"sort": "180", "as_num": "AS51434", "register": "MERCATOR-CG-AS Put Radomira Ivanovica 2, SI", "count": "0", "register_time": "20100825", "url": "http://as.chacuo.net/as51434"}, {"sort": "181", "as_num": "AS51509", "register": "NEO-AS, SI", "count": "0", "register_time": "20100914", "url": "http://as.chacuo.net/as51509"}, {"sort": "182", "as_num": "AS51565", "register": "SI-HC-CENTER, SI", "count": "0", "register_time": "20100929", "url": "http://as.chacuo.net/as51565"}, {"sort": "183", "as_num": "AS51573", "register": "XLAB-AS, SI", "count": "0", "register_time": "20100930", "url": "http://as.chacuo.net/as51573"}, {"sort": "184", "as_num": "AS51615", "register": "KATENG-ASN, SI", "count": "0", "register_time": "20101008", "url": "http://as.chacuo.net/as51615"}, {"sort": "185", "as_num": "AS51644", "register": "SI-DATALAB, SI", "count": "0", "register_time": "20101013", "url": "http://as.chacuo.net/as51644"}, {"sort": "186", "as_num": "AS51735", "register": "PERNOD-RICARD-SLOVENIA-AS, SI", "count": "0", "register_time": "20101028", "url": "http://as.chacuo.net/as51735"}, {"sort": "187", "as_num": "AS51790", "register": "SIEL, SI", "count": "0", "register_time": "20101104", "url": "http://as.chacuo.net/as51790"}, {"sort": "188", "as_num": "AS51803", "register": "TELEMACH-NET, SI", "count": "0", "register_time": "20101108", "url": "http://as.chacuo.net/as51803"}, {"sort": "189", "as_num": "AS51816", "register": "ASTEC-AS, SI", "count": "0", "register_time": "20101110", "url": "http://as.chacuo.net/as51816"}, {"sort": "190", "as_num": "AS51856", "register": "LICER-AS, SI", "count": "0", "register_time": "20101116", "url": "http://as.chacuo.net/as51856"}, {"sort": "191", "as_num": "AS51988", "register": "ARNES-SIX, SI", "count": "0", "register_time": "20101210", "url": "http://as.chacuo.net/as51988"}, {"sort": "192", "as_num": "AS52035", "register": "TELESAT, SI", "count": "0", "register_time": "20101217", "url": "http://as.chacuo.net/as52035"}, {"sort": "193", "as_num": "AS56481", "register": "MLINOTEST-AS, SI", "count": "0", "register_time": "20110301", "url": "http://as.chacuo.net/as56481"}, {"sort": "194", "as_num": "AS56513", "register": "OPTISIS-AS, SI", "count": "0", "register_time": "20110308", "url": "http://as.chacuo.net/as56513"}, {"sort": "195", "as_num": "AS56635", "register": "XENYA, SI", "count": "0", "register_time": "20110413", "url": "http://as.chacuo.net/as56635"}, {"sort": "196", "as_num": "AS56651", "register": "SI-URADNI-LIST-RS, SI", "count": "0", "register_time": "20110420", "url": "http://as.chacuo.net/as56651"}, {"sort": "197", "as_num": "AS56695", "register": "RRC, SI", "count": "0", "register_time": "20110428", "url": "http://as.chacuo.net/as56695"}, {"sort": "198", "as_num": "AS56884", "register": "SWATYCOMET, SI", "count": "0", "register_time": "20110603", "url": "http://as.chacuo.net/as56884"}, {"sort": "199", "as_num": "AS56993", "register": "KZPS, SI", "count": "0", "register_time": "20110630", "url": "http://as.chacuo.net/as56993"}, {"sort": "200", "as_num": "AS57127", "register": "ISERVER-AS, SI", "count": "0", "register_time": "20110726", "url": "http://as.chacuo.net/as57127"}, {"sort": "201", "as_num": "AS57291", "register": "AJM-DOO, SI", "count": "0", "register_time": "20110915", "url": "http://as.chacuo.net/as57291"}, {"sort": "202", "as_num": "AS57517", "register": "POLICIJA-AS, SI", "count": "0", "register_time": "20111121", "url": "http://as.chacuo.net/as57517"}, {"sort": "203", "as_num": "AS57554", "register": "ZAVMB-DD, SI", "count": "0", "register_time": "20111125", "url": "http://as.chacuo.net/as57554"}, {"sort": "204", "as_num": "AS57623", "register": "AGENDA, SI", "count": "0", "register_time": "20111214", "url": "http://as.chacuo.net/as57623"}, {"sort": "205", "as_num": "AS57854", "register": "ALTERNA-AS, SI", "count": "0", "register_time": "20120223", "url": "http://as.chacuo.net/as57854"}, {"sort": "206", "as_num": "AS58046", "register": "HKOM-AS, SI", "count": "0", "register_time": "20120410", "url": "http://as.chacuo.net/as58046"}, {"sort": "207", "as_num": "AS58056", "register": "KRS-NET-AS, SI", "count": "0", "register_time": "20120411", "url": "http://as.chacuo.net/as58056"}, {"sort": "208", "as_num": "AS58213", "register": "SI-TOTTER-MIDI, SI", "count": "0", "register_time": "20120525", "url": "http://as.chacuo.net/as58213"}, {"sort": "209", "as_num": "AS58270", "register": "TELPROM-AS, SI", "count": "0", "register_time": "20120612", "url": "http://as.chacuo.net/as58270"}, {"sort": "210", "as_num": "AS59834", "register": "HITROST-AS, SI", "count": "0", "register_time": "20140909", "url": "http://as.chacuo.net/as59834"}, {"sort": "211", "as_num": "AS60114", "register": "INNERKAN, SI", "count": "0", "register_time": "20140513", "url": "http://as.chacuo.net/as60114"}, {"sort": "212", "as_num": "AS60215", "register": "PROJEKTIP, SI", "count": "0", "register_time": "20130903", "url": "http://as.chacuo.net/as60215"}, {"sort": "213", "as_num": "AS60435", "register": "ZABEC, SI", "count": "0", "register_time": "20130718", "url": "http://as.chacuo.net/as60435"}, {"sort": "214", "as_num": "AS60514", "register": "AKTIVA-AS, SI", "count": "0", "register_time": "20130708", "url": "http://as.chacuo.net/as60514"}, {"sort": "215", "as_num": "AS60973", "register": "ZUPO, SI", "count": "0", "register_time": "20130327", "url": "http://as.chacuo.net/as60973"}, {"sort": "216", "as_num": "AS61424", "register": "ESERVER-SK-AS, SI", "count": "0", "register_time": "20121015", "url": "http://as.chacuo.net/as61424"}, {"sort": "217", "as_num": "AS196772", "register": "NEK, SI", "count": "0", "register_time": "20090520", "url": "http://as.chacuo.net/as196772"}, {"sort": "218", "as_num": "AS196846", "register": "ELKATV, SI", "count": "0", "register_time": "20091028", "url": "http://as.chacuo.net/as196846"}, {"sort": "219", "as_num": "AS196895", "register": "UJP-, SI", "count": "0", "register_time": "20100119", "url": "http://as.chacuo.net/as196895"}, {"sort": "220", "as_num": "AS196912", "register": "ACH-AS, SI", "count": "0", "register_time": "20100514", "url": "http://as.chacuo.net/as196912"}, {"sort": "221", "as_num": "AS197045", "register": "AVISION-ALTERNET, SI", "count": "0", "register_time": "20100429", "url": "http://as.chacuo.net/as197045"}, {"sort": "222", "as_num": "AS197209", "register": "STN-EU-AS, SI", "count": "0", "register_time": "20100805", "url": "http://as.chacuo.net/as197209"}, {"sort": "223", "as_num": "AS197266", "register": "A-SOFT, SI", "count": "0", "register_time": "20100915", "url": "http://as.chacuo.net/as197266"}, {"sort": "224", "as_num": "AS197326", "register": "TRIMO, SI", "count": "0", "register_time": "20101020", "url": "http://as.chacuo.net/as197326"}, {"sort": "225", "as_num": "AS197391", "register": "TOBACNA-LJUBLJANA-SI-AS, SI", "count": "0", "register_time": "20101115", "url": "http://as.chacuo.net/as197391"}, {"sort": "226", "as_num": "AS197416", "register": "TALPAS-SI-AS, SI", "count": "0", "register_time": "20101119", "url": "http://as.chacuo.net/as197416"}, {"sort": "227", "as_num": "AS197441", "register": "ABAK, SI", "count": "0", "register_time": "20101201", "url": "http://as.chacuo.net/as197441"}, {"sort": "228", "as_num": "AS197470", "register": "TELE-CABLE-NET, SI", "count": "0", "register_time": "20101214", "url": "http://as.chacuo.net/as197470"}, {"sort": "229", "as_num": "AS197511", "register": "TELESISTEMI, SI", "count": "0", "register_time": "20110105", "url": "http://as.chacuo.net/as197511"}, {"sort": "230", "as_num": "AS197514", "register": "SBERBANK, SI", "count": "0", "register_time": "20110105", "url": "http://as.chacuo.net/as197514"}, {"sort": "231", "as_num": "AS197536", "register": "KOVINTRADE-SI-AS, SI", "count": "0", "register_time": "20110126", "url": "http://as.chacuo.net/as197536"}, {"sort": "232", "as_num": "AS197545", "register": "TET, SI", "count": "0", "register_time": "20110127", "url": "http://as.chacuo.net/as197545"}, {"sort": "233", "as_num": "AS197579", "register": "BASS-, SI", "count": "0", "register_time": "20110214", "url": "http://as.chacuo.net/as197579"}, {"sort": "234", "as_num": "AS197635", "register": "ETI-, SI", "count": "0", "register_time": "20110307", "url": "http://as.chacuo.net/as197635"}, {"sort": "235", "as_num": "AS197655", "register": "GEN-I, SI", "count": "0", "register_time": "20110314", "url": "http://as.chacuo.net/as197655"}, {"sort": "236", "as_num": "AS197663", "register": "ZZRP, SI", "count": "0", "register_time": "20110318", "url": "http://as.chacuo.net/as197663"}, {"sort": "237", "as_num": "AS197679", "register": "KOLEKTORGROUP, SI", "count": "0", "register_time": "20110323", "url": "http://as.chacuo.net/as197679"}, {"sort": "238", "as_num": "AS197791", "register": "SID-PKZ, SI", "count": "0", "register_time": "20110504", "url": "http://as.chacuo.net/as197791"}, {"sort": "239", "as_num": "AS197796", "register": "TEB-SI-AS, SI", "count": "0", "register_time": "20110505", "url": "http://as.chacuo.net/as197796"}, {"sort": "240", "as_num": "AS197806", "register": "MONOTEK, SI", "count": "0", "register_time": "20110511", "url": "http://as.chacuo.net/as197806"}, {"sort": "241", "as_num": "AS197843", "register": "ALCAD-, SI", "count": "0", "register_time": "20110525", "url": "http://as.chacuo.net/as197843"}, {"sort": "242", "as_num": "AS197864", "register": "IMD2-AS, SI", "count": "0", "register_time": "20110905", "url": "http://as.chacuo.net/as197864"}, {"sort": "243", "as_num": "AS197877", "register": "SI-CORIS, SI", "count": "0", "register_time": "20110608", "url": "http://as.chacuo.net/as197877"}, {"sort": "244", "as_num": "AS197881", "register": "RC-IKT, SI", "count": "0", "register_time": "20110608", "url": "http://as.chacuo.net/as197881"}, {"sort": "245", "as_num": "AS197907", "register": "AKSON, SI", "count": "0", "register_time": "20110621", "url": "http://as.chacuo.net/as197907"}, {"sort": "246", "as_num": "AS197944", "register": "SI-VIRTUA, SI", "count": "0", "register_time": "20110711", "url": "http://as.chacuo.net/as197944"}, {"sort": "247", "as_num": "AS197970", "register": "-Reserved AS-, ZZ", "count": "0", "register_time": "20110726", "url": "http://as.chacuo.net/as197970"}, {"sort": "248", "as_num": "AS198011", "register": "TILIA, SI", "count": "0", "register_time": "20110824", "url": "http://as.chacuo.net/as198011"}, {"sort": "249", "as_num": "AS198061", "register": "SI-VALICON, SI", "count": "0", "register_time": "20110919", "url": "http://as.chacuo.net/as198061"}, {"sort": "250", "as_num": "AS198213", "register": "FREENET, SI", "count": "0", "register_time": "20111114", "url": "http://as.chacuo.net/as198213"}, {"sort": "251", "as_num": "AS198245", "register": "MONOLIT, SI", "count": "0", "register_time": "20111124", "url": "http://as.chacuo.net/as198245"}, {"sort": "252", "as_num": "AS198298", "register": "IMOVATION, SI", "count": "0", "register_time": "20111206", "url": "http://as.chacuo.net/as198298"}, {"sort": "253", "as_num": "AS198307", "register": "TPV-SI-AS, SI", "count": "0", "register_time": "20111208", "url": "http://as.chacuo.net/as198307"}, {"sort": "254", "as_num": "AS198470", "register": "SI-RLS, SI", "count": "0", "register_time": "20120209", "url": "http://as.chacuo.net/as198470"}, {"sort": "255", "as_num": "AS198524", "register": "ILOL, SI", "count": "0", "register_time": "20120223", "url": "http://as.chacuo.net/as198524"}, {"sort": "256", "as_num": "AS198572", "register": "IKA, SI", "count": "0", "register_time": "20120313", "url": "http://as.chacuo.net/as198572"}, {"sort": "257", "as_num": "AS198644", "register": "GO6, SI", "count": "0", "register_time": "20120402", "url": "http://as.chacuo.net/as198644"}, {"sort": "258", "as_num": "AS198827", "register": "ELEKTROGORENJSKA-, SI", "count": "0", "register_time": "20120525", "url": "http://as.chacuo.net/as198827"}, {"sort": "259", "as_num": "AS199050", "register": "ITARS-AS, SI", "count": "0", "register_time": "20120726", "url": "http://as.chacuo.net/as199050"}, {"sort": "260", "as_num": "AS199071", "register": "PRUNK Prunk Network, SI", "count": "0", "register_time": "20120803", "url": "http://as.chacuo.net/as199071"}, {"sort": "261", "as_num": "AS199177", "register": "SI-HOTELI-BERNARDIN, SI", "count": "0", "register_time": "20120905", "url": "http://as.chacuo.net/as199177"}, {"sort": "262", "as_num": "AS199249", "register": "GENIS-, SI", "count": "0", "register_time": "20121003", "url": "http://as.chacuo.net/as199249"}, {"sort": "263", "as_num": "AS199268", "register": "LANCOM-, SI", "count": "0", "register_time": "20130403", "url": "http://as.chacuo.net/as199268"}, {"sort": "264", "as_num": "AS199612", "register": "BISNODE, SI", "count": "0", "register_time": "20121108", "url": "http://as.chacuo.net/as199612"}, {"sort": "265", "as_num": "AS199638", "register": "RUDIS-SI-AS, SI", "count": "0", "register_time": "20121031", "url": "http://as.chacuo.net/as199638"}, {"sort": "266", "as_num": "AS199755", "register": "ALSTAR, SI", "count": "0", "register_time": "20140210", "url": "http://as.chacuo.net/as199755"}, {"sort": "267", "as_num": "AS199951", "register": "KNET-AS, SI", "count": "0", "register_time": "20131127", "url": "http://as.chacuo.net/as199951"}, {"sort": "268", "as_num": "AS199971", "register": "SI-IXTLANTEAM, SI", "count": "0", "register_time": "20131120", "url": "http://as.chacuo.net/as199971"}, {"sort": "269", "as_num": "AS201905", "register": "DSPOT, SI", "count": "0", "register_time": "20140606", "url": "http://as.chacuo.net/as201905"}, {"sort": "270", "as_num": "AS201985", "register": "ABAK2, SI", "count": "0", "register_time": "20140512", "url": "http://as.chacuo.net/as201985"}, {"sort": "271", "as_num": "AS202137", "register": "ANSAT, SI", "count": "0", "register_time": "20140328", "url": "http://as.chacuo.net/as202137"}, {"sort": "272", "as_num": "AS202200", "register": "ETA-CERKNO-, SI", "count": "0", "register_time": "20140313", "url": "http://as.chacuo.net/as202200"}, {"sort": "273", "as_num": "AS201060", "register": "TEON, SI", "count": "0", "register_time": "20150206", "url": "http://as.chacuo.net/as201060"}, {"sort": "274", "as_num": "AS204068", "register": "ALTNOVA-AS, SI", "count": "0", "register_time": "19700101", "url": "http://as.chacuo.net/as204068"}, {"sort": "275", "as_num": "AS203607", "register": "KMAG, SI", "count": "0", "register_time": "19700101", "url": "http://as.chacuo.net/as203607"}, {"sort": "276", "as_num": "AS202840", "register": "ELMITEL, SI", "count": "0", "register_time": "19700101", "url": "http://as.chacuo.net/as202840"}, {"sort": "277", "as_num": "AS202547", "register": "HRANILNICA-LON-AS, SI", "count": "0", "register_time": "19700101", "url": "http://as.chacuo.net/as202547"}, {"sort": "278", "as_num": "AS64465", "register": "COMTRON-AS, SI", "count": "0", "register_time": "19700101", "url": "http://as.chacuo.net/as64465"}, {"sort": "279", "as_num": "AS206872", "register": "PALOMA-AS, SI", "count": "0", "register_time": "19700101", "url": "http://as.chacuo.net/as206872"}, {"sort": "280", "as_num": "AS206491", "register": "STORK-AS, SI", "count": "0", "register_time": "19700101", "url": "http://as.chacuo.net/as206491"}, {"sort": "281", "as_num": "AS205955", "register": "MM-INTERCOM, SI", "count": "0", "register_time": "19700101", "url": "http://as.chacuo.net/as205955"}, {"sort": "282", "as_num": "AS205509", "register": "ELEKTRO-PRIMORSKA, SI", "count": "0", "register_time": "19700101", "url": "http://as.chacuo.net/as205509"}, {"sort": "283", "as_num": "AS205417", "register": "INPRO, SI", "count": "0", "register_time": "19700101", "url": "http://as.chacuo.net/as205417"}, {"sort": "284", "as_num": "AS205403", "register": "ELRAD, SI", "count": "0", "register_time": "19700101", "url": "http://as.chacuo.net/as205403"}, {"sort": "285", "as_num": "AS205404", "register": "ARHIDES, SI", "count": "0", "register_time": "19700101", "url": "http://as.chacuo.net/as205404"}, {"sort": "286", "as_num": "AS205405", "register": "KEMOFARMACIJA, SI", "count": "0", "register_time": "19700101", "url": "http://as.chacuo.net/as205405"}, {"sort": "287", "as_num": "AS205379", "register": "SALONIT, SI", "count": "0", "register_time": "19700101", "url": "http://as.chacuo.net/as205379"}, {"sort": "288", "as_num": "AS204771", "register": "SI-SINERGISE, SI", "count": "0", "register_time": "19700101", "url": "http://as.chacuo.net/as204771"}, {"sort": "289", "as_num": "AS204500", "register": "ARCONT, SI", "count": "0", "register_time": "19700101", "url": "http://as.chacuo.net/as204500"}, {"sort": "290", "as_num": "AS204501", "register": "LTHCASTING, SI", "count": "0", "register_time": "19700101", "url": "http://as.chacuo.net/as204501"}, {"sort": "291", "as_num": "AS202456", "register": "SILIKO, SI", "count": "0", "register_time": "19700101", "url": "http://as.chacuo.net/as202456"}, {"sort": "292", "as_num": "AS202442", "register": "REALSEC, SI", "count": "0", "register_time": "19700101", "url": "http://as.chacuo.net/as202442"}]