[{"sort": "1", "as_num": "AS8670", "register": "UTIC_AUTONOMUS_SYSTEM, BA", "count": "0", "register_time": "19980217", "url": "http://as.chacuo.net/as8670"}, {"sort": "2", "as_num": "AS9146", "register": "BIHNET BIHNET Autonomus System, BA", "count": "0", "register_time": "19990112", "url": "http://as.chacuo.net/as9146"}, {"sort": "3", "as_num": "AS16145", "register": "INECCO-LANACO-AS, BA", "count": "0", "register_time": "20010105", "url": "http://as.chacuo.net/as16145"}, {"sort": "4", "as_num": "AS16178", "register": "LOGOSOFT-AS Logosoft d.o.o., BA", "count": "0", "register_time": "20010115", "url": "http://as.chacuo.net/as16178"}, {"sort": "5", "as_num": "AS20875", "register": "HPTNET-AS, BA", "count": "0", "register_time": "20010625", "url": "http://as.chacuo.net/as20875"}, {"sort": "6", "as_num": "AS21090", "register": ",", "count": "0", "register_time": "20010824", "url": "http://as.chacuo.net/as21090"}, {"sort": "7", "as_num": "AS21107", "register": "BLICNET-AS # BLIC.NET AS peering info, BA", "count": "0", "register_time": "20010829", "url": "http://as.chacuo.net/as21107"}, {"sort": "8", "as_num": "AS21196", "register": "EPN-BA-AS Fra Angela Zvizdovica 1 71000 Sarajevo Bosnia and Herzegovina, BA", "count": "0", "register_time": "20010924", "url": "http://as.chacuo.net/as21196"}, {"sort": "9", "as_num": "AS25144", "register": "TELEKOM-SRPSKE-AS Kralja Petra I Karadjordjevica 61a, BA", "count": "0", "register_time": "20020807", "url": "http://as.chacuo.net/as25144"}, {"sort": "10", "as_num": "AS31630", "register": ",", "count": "0", "register_time": "20040625", "url": "http://as.chacuo.net/as31630"}, {"sort": "11", "as_num": "AS34665", "register": ",", "count": "0", "register_time": "20050311", "url": "http://as.chacuo.net/as34665"}, {"sort": "12", "as_num": "AS34943", "register": "SPINTERNET-AS, BA", "count": "0", "register_time": "20050503", "url": "http://as.chacuo.net/as34943"}, {"sort": "13", "as_num": "AS35567", "register": "DASTO-BOSNIA-AS, BA", "count": "0", "register_time": "20050906", "url": "http://as.chacuo.net/as35567"}, {"sort": "14", "as_num": "AS39689", "register": "KONZUM-AS Retail and wholesale, BA", "count": "0", "register_time": "20090127", "url": "http://as.chacuo.net/as39689"}, {"sort": "15", "as_num": "AS42432", "register": "HS-HKB, BA", "count": "0", "register_time": "20070220", "url": "http://as.chacuo.net/as42432"}, {"sort": "16", "as_num": "AS42450", "register": "TELEMACH, BA", "count": "0", "register_time": "20070222", "url": "http://as.chacuo.net/as42450"}, {"sort": "17", "as_num": "AS42560", "register": "BA-TELEMACH-AS Telemach d.o.o. Sarajevo, BA", "count": "0", "register_time": "20070313", "url": "http://as.chacuo.net/as42560"}, {"sort": "18", "as_num": "AS42571", "register": "TLR-AS, BA", "count": "0", "register_time": "20070314", "url": "http://as.chacuo.net/as42571"}, {"sort": "19", "as_num": "AS42983", "register": "BA-GLOBALNET, BA", "count": "0", "register_time": "20070521", "url": "http://as.chacuo.net/as42983"}, {"sort": "20", "as_num": "AS43179", "register": "TEAMC-AS, BA", "count": "0", "register_time": "20070620", "url": "http://as.chacuo.net/as43179"}, {"sort": "21", "as_num": "AS43604", "register": "AS_MONET_CIP AS CABLE ISP Mostar, BA", "count": "0", "register_time": "20070830", "url": "http://as.chacuo.net/as43604"}, {"sort": "22", "as_num": "AS43704", "register": "PINCOM-AS, BA", "count": "0", "register_time": "20070917", "url": "http://as.chacuo.net/as43704"}, {"sort": "23", "as_num": "AS43752", "register": "SARNET, BA", "count": "0", "register_time": "20070921", "url": "http://as.chacuo.net/as43752"}, {"sort": "24", "as_num": "AS43947", "register": "RFSN-BA-AS, BA", "count": "0", "register_time": "20071025", "url": "http://as.chacuo.net/as43947"}, {"sort": "25", "as_num": "AS47840", "register": "DSL-ELEKTRONIKA-AS, BA", "count": "0", "register_time": "20080901", "url": "http://as.chacuo.net/as47840"}, {"sort": "26", "as_num": "AS50537", "register": "QSS-AS, BA", "count": "0", "register_time": "20100205", "url": "http://as.chacuo.net/as50537"}, {"sort": "27", "as_num": "AS50938", "register": "BA-TELEMACH-GLOBAL-AS, BA", "count": "0", "register_time": "20100428", "url": "http://as.chacuo.net/as50938"}, {"sort": "28", "as_num": "AS51386", "register": "BA-TELEMACH, BA", "count": "0", "register_time": "20100810", "url": "http://as.chacuo.net/as51386"}, {"sort": "29", "as_num": "AS57869", "register": "MISSNET, BA", "count": "0", "register_time": "20120229", "url": "http://as.chacuo.net/as57869"}, {"sort": "30", "as_num": "AS59457", "register": "AVAX-BOSNIA-AS, BA", "count": "0", "register_time": "20120716", "url": "http://as.chacuo.net/as59457"}, {"sort": "31", "as_num": "AS59847", "register": "WIRAC, BA", "count": "0", "register_time": "20140904", "url": "http://as.chacuo.net/as59847"}, {"sort": "32", "as_num": "AS197687", "register": "VMO-AS, BA", "count": "0", "register_time": "20110325", "url": "http://as.chacuo.net/as197687"}, {"sort": "33", "as_num": "AS198252", "register": "ELTAKABEL-AS Dobojskih brigada BB, BA", "count": "0", "register_time": "20111125", "url": "http://as.chacuo.net/as198252"}, {"sort": "34", "as_num": "AS198994", "register": "NOVABANKA-AS, BA", "count": "0", "register_time": "20120711", "url": "http://as.chacuo.net/as198994"}, {"sort": "35", "as_num": "AS199051", "register": "SCWLAN Vidovdanska 48, Bijeljina 76300, BA", "count": "0", "register_time": "20120727", "url": "http://as.chacuo.net/as199051"}, {"sort": "36", "as_num": "AS201719", "register": "TK-AS, BA", "count": "0", "register_time": "20140804", "url": "http://as.chacuo.net/as201719"}, {"sort": "37", "as_num": "AS200914", "register": "FBAFBIH, BA", "count": "0", "register_time": "20150312", "url": "http://as.chacuo.net/as200914"}, {"sort": "38", "as_num": "AS200698", "register": "GLOBALHOST-BOSNIA-AS, BA", "count": "0", "register_time": "20150504", "url": "http://as.chacuo.net/as200698"}, {"sort": "39", "as_num": "AS203744", "register": "TRION-TEL-AS Internet Service Provider in Bosnia&Herzegovina, BA", "count": "0", "register_time": "19700101", "url": "http://as.chacuo.net/as203744"}, {"sort": "40", "as_num": "AS202632", "register": "TXTV, BA", "count": "0", "register_time": "19700101", "url": "http://as.chacuo.net/as202632"}, {"sort": "41", "as_num": "AS205913", "register": "DIPLOMAT-AS, BA", "count": "0", "register_time": "19700101", "url": "http://as.chacuo.net/as205913"}, {"sort": "42", "as_num": "AS209491", "register": "ZIPZAP, BA", "count": "0", "register_time": "19700101", "url": "http://as.chacuo.net/as209491"}, {"sort": "43", "as_num": "AS209493", "register": "NEON-SOLUCIJE, BA", "count": "0", "register_time": "19700101", "url": "http://as.chacuo.net/as209493"}]