[{"sort": "1", "as_num": "AS47451", "register": "DOMEN, ME", "count": "1,024", "register_time": "20080620", "url": "http://as.chacuo.net/as47451"}, {"sort": "2", "as_num": "AS8585", "register": "INTERNET-CG, ME", "count": "0", "register_time": "19971216", "url": "http://as.chacuo.net/as8585"}, {"sort": "3", "as_num": "AS15397", "register": "TELENORMONTENEGRO, ME", "count": "0", "register_time": "20041005", "url": "http://as.chacuo.net/as15397"}, {"sort": "4", "as_num": "AS29453", "register": "TELEKOM-MPLS, ME", "count": "0", "register_time": "20030915", "url": "http://as.chacuo.net/as29453"}, {"sort": "5", "as_num": "AS40981", "register": "UNIVCG, ME", "count": "0", "register_time": "20060524", "url": "http://as.chacuo.net/as40981"}, {"sort": "6", "as_num": "AS43846", "register": "TELEMACH-AS, ME", "count": "0", "register_time": "20071009", "url": "http://as.chacuo.net/as43846"}, {"sort": "7", "as_num": "AS43940", "register": "MTEL-AS, ME", "count": "0", "register_time": "20071023", "url": "http://as.chacuo.net/as43940"}, {"sort": "8", "as_num": "AS47881", "register": "MNNEWS-AS, ME", "count": "0", "register_time": "20080910", "url": "http://as.chacuo.net/as47881"}, {"sort": "9", "as_num": "AS51629", "register": "MKABL-AS, ME", "count": "0", "register_time": "20101012", "url": "http://as.chacuo.net/as51629"}, {"sort": "10", "as_num": "AS51924", "register": "PORTOMONTENEGRO-AS, ME", "count": "0", "register_time": "20101130", "url": "http://as.chacuo.net/as51924"}, {"sort": "11", "as_num": "AS51998", "register": "ARHCITY, RU", "count": "0", "register_time": "20101213", "url": "http://as.chacuo.net/as51998"}, {"sort": "12", "as_num": "AS60082", "register": "CATNIX-RS, ES", "count": "0", "register_time": "20140528", "url": "http://as.chacuo.net/as60082"}, {"sort": "13", "as_num": "AS60861", "register": "ASREDCAT, ME", "count": "0", "register_time": "20130423", "url": "http://as.chacuo.net/as60861"}, {"sort": "14", "as_num": "AS62301", "register": "IPMONT-AS, ME", "count": "0", "register_time": "20131118", "url": "http://as.chacuo.net/as62301"}, {"sort": "15", "as_num": "AS198961", "register": "ORION-TELEKOM-MONTENEGRO, ME", "count": "0", "register_time": "20120703", "url": "http://as.chacuo.net/as198961"}, {"sort": "16", "as_num": "AS200105", "register": ",", "count": "0", "register_time": "20131008", "url": "http://as.chacuo.net/as200105"}, {"sort": "17", "as_num": "AS201649", "register": "CBCGME-AS, ME", "count": "0", "register_time": "20140825", "url": "http://as.chacuo.net/as201649"}, {"sort": "18", "as_num": "AS201777", "register": "MTEL-AS-1, ME", "count": "0", "register_time": "20140716", "url": "http://as.chacuo.net/as201777"}, {"sort": "19", "as_num": "AS200608", "register": "MIXP, ME", "count": "0", "register_time": "20150526", "url": "http://as.chacuo.net/as200608"}, {"sort": "20", "as_num": "AS203879", "register": "ZAPADBANKA, ME", "count": "0", "register_time": "19700101", "url": "http://as.chacuo.net/as203879"}, {"sort": "21", "as_num": "AS203506", "register": "MOD-, ME", "count": "0", "register_time": "19700101", "url": "http://as.chacuo.net/as203506"}, {"sort": "22", "as_num": "AS202644", "register": "MEWIRELESS, ME", "count": "0", "register_time": "19700101", "url": "http://as.chacuo.net/as202644"}, {"sort": "23", "as_num": "AS205546", "register": "MONTE-HOSTING, ME", "count": "0", "register_time": "19700101", "url": "http://as.chacuo.net/as205546"}]